
  EPA STORM WATER MANAGEMENT MODEL - VERSION 5.2 (Build 5.2.4)
  ------------------------------------------------------------

  A site surface drainage model. 
  See Site_Drainage_Model.txt for more details. 

  Analysis begun on:  Mon Dec 16 15:42:14 2024
  Analysis ended on:  Mon Dec 16 15:42:27 2024
  Total elapsed time: 00:00:13